
-- OIL - GAS SYSTEM
-- BHP      = 900 PSI


RUNSPEC

TITLE
 OIL/WATER SYSTEM MSWELL IMPLEMENTATION TEST

DIMENS
 20  1  5  /

OIL

GAS

DISGAS

FIELD

TABDIMS
 1  1  19  15  15  15  /


WELLDIMS
 1  15  1  1  /


WSEGDIMS
 1  40  3  /

START
 10 'APRIL' 2005 /
 
GRID        =========================================================

NOGGF

EQUALS
 'DX'     400  /
 'DY'     1000  /
 'PERMX'  500  /
 'PERMY'  500  /
 'PERMZ'  50   /
 'DZ'     50   /
 'PORO'   0.3  /
 'TOPS'   5200   1 20 1 1 1 1 /  -- 1st layer 
 /
 
-- request init and grid file, necessary for post processing of the simulation
-- with floviz
INIT
GRIDFILE
 2 /


RPTGRID
  0 /
 
PROPS       ==========================================================

                                                
PVDG                                       
-- Pref  B  Comp   Visc  Viscobility       
--  1     1  1e-6    1      0         /   
--    P        BW          VISC		   
--    PSI     RB/Mscf       CP		
--	     rb/Mscf   
 	 
     14.7 166.666   0.008            
    264.7  12.093   0.0096           
    514.7   6.274   0.0112           
   1014.7   3.197   0.014            
   2014.7   1.614   0.0189           
   2514.7   1.294   0.0208           
   3014.7   1.080   0.0228           
   4014.7   0.811   0.0268           
   5014.7   0.649   0.0309           
   9014.7   0.386   0.047 

/                                          

PVTO                                           
--   P        	BO       	VISC     
--   PSI      	RB/STB    	 CP      
0.001    14.7   1.062 	      1.04    /   
0.0905  264.7   1.15  	      0.975   / 
0.18    514.7   1.207 	      0.91    / 
0.371  1014.7   1.295 	      0.83    / 
0.536  2014.7   1.435 	      0.695   / 
0.675  2514.7   1.5   	      0.641   / 
0.73   3014.7   1.565 	      0.594   /
0.800  4014.7   1.695 	      0.51     /
1.15   5114.7   1.701 	      0.489    
       9014.7   1.587 	      0.74    /        
 /
   
SGOF                  
-- Sg Krg Krog Pcog   
.0000 .0000 1.00 .0000 
1.000  1.000 0.00 .0000 
/

ROCK
-- Pref  Comp
  14.7     3e-6    /

 
DENSITY
-- OIL  W   GAS
 49.15  64  0.06055  /


SOLUTION      ========================================================

EQUIL    -- inital fluid potential (equilibrium)
-- datum  datum   OWC    OWC    GOC    GOC    RSVD   RVVD   SOLN
-- depth   prs   DEPTH   PCOW  DEPTH   PCOG  TABLE  TABLE   METH
   5200.   5400.  6500.   0.   237.    0.0      1      0       0  /

--PRESSURE
--20*1008.4829061396900 20*1025.4529939703382  20*1042.4287849290054 20*1059.4102818872857
--/
--
--SGAS
--80*0.0 /
--

-- VARIATION OF INITIAL RS WITH DEPTH
--
--    DEPTH    RS
RSVD                     
       5200   1.150      
       5500   1.1500    /
       

RPTRST    -- request restart file                   
'BASIC=2' PRESSURE PSAT                           
/                                            

SUMMARY      ===========================================================

WBHP
'PROD' /

SPR
 'PROD' /
 /

WGPR
 'PROD' /

WOPR
 'PROD' /
 

SOHF
 'PROD' /
 /

SOFV
 'PROD' /
 /

SGHF
 'PROD' /
 /

SGFV
 'PROD' /
 /


 
EXCEL

SCHEDULE     ===========================================================
 
  
RPTSCHED
  'WELLS=2'  'SUMMARY=2' 
  'CPU=2' 'WELSPECS'  /

 
WELSPECS
 'PROD' 'G' 1 1 5225 'OIL' 0.0  'STD'  'STOP' 'YES' 0 'SEG' 0 /
/

 
COMPDAT 
-- well    perforations    open/  sat  conn       well 
-- name    i   j  k1  k2   shut   tab  fact       diam
--  'PROD'   5   1   1  1    'OPEN'   0  10.93754   0.15  3*  'X' /
--  'PROD'   11  1   1  1    'OPEN'   0  10.93754   0.15  3*  'X' /
--  'PROD'   15  1   1  1    'OPEN'   0  10.93754   0.15  3*  'X' /
    'PROD'   19  1   1  1    'OPEN'   0  10.93754   0.15  3*  'X' /
    'PROD'   3   1   5  5    'OPEN'   0  10.93754   0.15  3*  'Z' /
    'PROD'   19  1   3  3    'OPEN'   0  10.93754   0.15  3*  'X' /
/

WSEGDFMD
SHI-04 SHI-04 SHI-04 /


WELSEGS

-- Name    Dep 1   Tlen 1  Vol 1
  'PROD'   5225.0   0.0     0.0  'INC' 'HFA'  'DF' /

-- First   Last   Branch   Outlet  Length   Depth    Diam     Ruff   Area  Vol
-- Seg     Seg    Num      Seg     change   Change 
-- Main Stem
   2      2      1        1       400.0    0.000    0.15   1.E-2  1*   1* /
   3      3      1        2       400.0    0.000    0.15   1.E-2  1*   1* /
   4      4      1        3       400.0    0.000    0.15   1.E-2  1*   1* /
   5      5      1        4       400.0    0.000    0.15   1.E-2  1*   1* /
   6      6      1        5       400.0    0.000    0.15   1.E-2  1*   1* /
   7      7      1        6       400.0    0.000    0.15   1.E-2  1*   1* /    
   8      8      1        7       400.0    0.000    0.15   1.E-2  1*   1* /    
   9      9      1        8       400.0    0.000    0.15   1.E-2  1*   1* /    
   10     10     1        9       400.0    0.000    0.15   1.E-2  1*   1* /    
   11     11     1        10      400.0    0.000    0.15   1.E-2  1*   1* /    
   12     12     1        11      400.0    0.000    0.15   1.E-2  1*   1* /    
   13     13     1        12      400.0    0.000    0.15   1.E-2  1*   1* /    
   14     14     1        13      400.0    0.000    0.15   1.E-2  1*   1* /    
   15     15     1        14      400.0    0.000    0.15   1.E-2  1*   1* /    
  
   16     16     2        1       50.00    50.00    0.1    1.E-2  1*   1* /
   17     17     2        16      50.00    50.00    0.1    1.E-2  1*   1* /
   18     18     2        17      50.00    50.00    0.1    1.E-2  1*   1* /
   19     19     2        18      50.00    50.00    0.1    1.E-2  1*   1* /
  
   20      20    3        17      400.0    0.000    0.10   1.E-2  1*   1* / 
   21      21    3        20      400.0    0.000    0.10   1.E-2  1*   1* / 
   22      22    3        21      400.0    0.000    0.10   1.E-2  1*   1* /
   23      23    3        22      400.0    0.000    0.10   1.E-2  1*   1* /
   24      24    3        23      400.0    0.000    0.10   1.E-2  1*   1* /
   25      25    3        24      400.0    0.000    0.10   1.E-2  1*   1* /
   26      26    3        25      400.0    0.000    0.10   1.E-2  1*   1* /
   27      27    3        26      400.0    0.000    0.10   1.E-2  1*   1* /
   28      28    3        27      400.0    0.000    0.10   1.E-2  1*   1* /
   29      29    3        28      400.0    0.000    0.10   1.E-2  1*   1* /
   30      30    3        29      400.0    0.000    0.10   1.E-2  1*   1* /
   31      31    3        30      400.0    0.000    0.10   1.E-2  1*   1* /
   32      32    3        31      400.0    0.000    0.10   1.E-2  1*   1* /
   33      33    3        32      400.0    0.000    0.10   1.E-2  1*   1* /
  / 

COMPSEGS
-- Name
  'PROD'            /
-- I   J   	K    	Brn   Start   End    
--              	No   	Length  Length  
--5  	1  	1  	1  	50      150  	  /  
--11  	1  	1  	1  	450     550	  /  
--15  	1  	1  	1  	1050    1050	  /  
19  	1  	1  	1  	5400    5800	  /  
3  	1  	5 	2  	175     225	  /
19	1	3	3	5500    5700	  /
/

WCONPROD
  'PROD'  'OPEN'  'BHP' 5*  4700.00  /
/

RPTRST    -- request restart file                    
'BASIC=2' PRESSURE  PSAT            
/                                                    
                                                     
TUNING
  0.01  0.01  0.01  0.01  1.0   /
 /
 4*  16 /

 
TSTEP
20*0.01 /

END

