
-- OIL - GAS SYSTEM
-- BHP      = 900 PSI


RUNSPEC

TITLE
 OIL/WATER SYSTEM MSWELL IMPLEMENTATION TEST

DIMENS
4  1  15  /


OIL

WATER

GAS

DISGAS

FIELD

TABDIMS
 1  1  19  15  15  15  /


WELLDIMS
 1  15  1  1  /


WSEGDIMS
 1  25  3  /

START
 10 'APRIL' 2005 /
 
GRID        =========================================================

NOGGF

EQUALS
 'DX'     400  /
 'DY'     1000  /
 'PERMX'  500  /
 'PERMY'  500  /
 'PERMZ'  50   /
 'DZ'     50   /
 'PORO'   0.3  /
 'TOPS'   5200   1 4 1 1 1 1 /  -- 1st layer 
 /
 
-- request init and grid file, necessary for post processing of the simulation
-- with floviz
INIT
GRIDFILE
 2 /


RPTGRID
  0 /
 
PROPS       ==========================================================

                                                
PVTO                                           
--   P        	BO       	VISC     
--   PSI      	RB/STB    	 CP      
0.001    14.7   1.062 	      1.04    /   
0.0905  264.7   1.15  	      0.975   / 
0.18    514.7   1.207 	      0.91    / 
0.371  1014.7   1.295 	      0.83    / 
0.536  2014.7   1.435 	      0.695   / 
0.675  2514.7   1.5   	      0.641   / 
0.73   3014.7   1.565 	      0.594   /
0.800  4014.7   1.695 	      0.51     /
1.15   5114.7   1.701 	      0.489    
       9014.7   1.587 	      0.74    /        
 /
                                        
PVDG                                       
-- Pref  B  Comp   Visc  Viscobility       
--  1     1  1e-6    1      0         /   
--    P        BW          VISC		   
--    PSI     RB/Mscf       CP		
--	     rb/Mscf   
 	 
     14.7 166.666   0.008            
    264.7  12.093   0.0096           
    514.7   6.274   0.0112           
   1014.7   3.197   0.014            
   2014.7   1.614   0.0189           
   2514.7   1.294   0.0208           
   3014.7   1.080   0.0228           
   4014.7   0.811   0.0268           
   5014.7   0.649   0.0309           
   9014.7   0.386   0.047 /
   
   
PVTW                                           
--   P        	BO       	VISC     
--   PSI      	RB/STB    	 CP      
  	5000	1.027	1e-9	0.3    / 
  /	
SWOF                                                        
--SW       KRW      KROW    PCOW                                      
  0.200    0.0000    1.0000      0                                    
  0.250    0.0069    0.8403      0                                    
  0.300    0.0278    0.6944      0                                    
  0.350    0.0625    0.5625      0                                    
  0.400    0.1111    0.4444      0                                    
  0.450    0.1736    0.3403      0                                    
  0.500    0.2500    0.2500      0                                    
  0.550    0.3403    0.1736      0                                    
  0.600    0.4444    0.1111      0                                    
  0.650    0.5625    0.0625      0                                    
  0.700    0.6944    0.0278      0                                    
  0.750    0.8403    0.0069      0                                    
  0.800    1.0000    0.0000      0                                    
  1.000    1.0000    0.0000      0                                    
/  
                                 
SGOF                  
-- Sg Krg Krog Pcog   
.0000 .0000 1.00 .0000 
1.000  1.000 0.00 .0000 
/

ROCK
-- Pref  Comp
  14.7     3e-6    /

 
DENSITY
-- OIL  W   GAS
 49.15  64  0.06055  /


SOLUTION      ========================================================

--EQUIL    -- inital fluid potential (equilibrium)
-- datum  datum   OWC    OWC    GOC    GOC    RSVD   RVVD   SOLN
-- depth   prs   DEPTH   PCOW  DEPTH   PCOG  TABLE  TABLE   METH
--   5200.   5400.  6500.   0.   237.    0.0      1      0       0  /

PRESSURE
4*5405.173232
4*5415.520179
4*5425.867768
4*5436.216   
4*5446.564875
4*5456.914392
4*5467.264553
4*5477.615356
4*5487.966803
4*5498.318892
4*5508.671625
4*5519.025001
4*5529.37902 
4*5539.733682
4*5550.088988
/
--
SWAT
60*0.45 /
SGAS
60*0.0 /

--RSVD                     
--5200   1.150      
--5950   1.1500    /
RS
60*1.1500 /


RPTRST    -- request restart file                   
'BASIC=2' PRESSURE PSAT                           
/                                            

SUMMARY      ===========================================================

WBHP
'PROD' /

WGPR     
 'PROD' /
         
WOPR     
 'PROD' /
 
WWPR     
 'PROD' /
         
SPR
 'PROD' /
 /

SOHF
 'PROD' /
 /

SWHF
 'PROD' /
 /

SGHF      
 'PROD' / 
 /        
      
SOWVD 
'PROD' /
/

 
EXCEL

SCHEDULE     ===========================================================
 
  
RPTSCHED
  'WELLS=2'  'SUMMARY=2' 
  'CPU=2' 'WELSPECS'  /

 
WELSPECS
 'PROD' 'G' 1 1 5225 'OIL' 0.0  'STD'  'STOP' 'YES' 0 'SEG' 0 /
/

  
COMPDAT 
-- well    perforations    open/  sat  conn       well 
-- name    i   j  k1  k2   shut   tab  fact       diam
--  'PROD'   5   1   1  1    'OPEN'   0  10.93754   0.15  3*  'X' /
--  'PROD'   11  1   1  1    'OPEN'   0  10.93754   0.15  3*  'X' /
--  'PROD'   15  1   1  1    'OPEN'   0  10.93754   0.15  3*  'X' /
    'PROD'   1   1   12   12    'OPEN'   0  10.93754   0.15  3*  'Z' /
/

WSEGDFMD
SHI-04 SHI-04 SHI-04 /


WELSEGS

-- Name    Dep 1   Tlen 1  Vol 1
  'PROD'   5225.0   0.0     0.0  'INC' 'HFA'  'DF' /

-- First   Last   Branch   Outlet  Length   Depth    Diam     Ruff   Area  Vol
-- Seg     Seg    Num      Seg     change   Change 
-- Main Stem
    2      2      1        1       70.71	50.000    	0.15   1.E-2  1*   1* /
    3      3      1        2       70.71	50.000    	0.15   1.E-2  1*   1* /
    4      4      1        3       70.71	50.000     	0.15   1.E-2  1*   1* /
    5      5      1        4       70.71	50.000    	0.15   1.E-2  1*   1* /
    6      6      1        5       70.71	50.000    	0.15   1.E-2  1*   1* /   
    7      7      1        6       70.71	50.000    	0.15   1.E-2  1*   1* /      
    8      8      1        7       70.71	50.000    	0.15   1.E-2  1*   1* /      
    9      9      1        8       70.71	50.000     	0.15   1.E-2  1*   1* /      
    10     10     1        9       70.71	50.000    	0.15   1.E-2  1*   1* /      
    11     11     1        10      70.71	50.000    	0.15   1.E-2  1*   1* /      
    12     12     1        11      70.71	50.000    	0.15   1.E-2  1*   1* /      
 /                         
COMPSEGS
-- Name
  'PROD'            /
-- I   J   	K    	Brn   Start   End    
--              	No   	Length  Length  
--5  	1  	1  	1  	50      150  	  /  
--11  	1  	1  	1  	450     550	  /  
--15  	1  	1  	1  	1050    1050	  /  
1  	1  	12  	1  	742.81     812.81	  /  
/                              

WCONPROD
  'PROD'  'OPEN'  'BHP' 5*  3500.00  /
/

RPTRST    -- request restart file                    
'BASIC=2' PRESSURE  PSAT            
/                                                    
                                                     
TUNING
  0.01  0.01  0.01  0.01  1.0   /
 /
 4*  16 /

 
TSTEP
30*0.01 /

END

