
-- OIL - GAS SYSTEM
-- BHP      = 900 PSI


RUNSPEC

TITLE
 OIL/WATER SYSTEM MSWELL IMPLEMENTATION TEST

DIMENS
 20  1  2 /

OIL

WATER

FIELD

TABDIMS
 1  1  19  20  20  20  /


WELLDIMS
 1  20  1  1  /


WSEGDIMS
 1  25  3  /

START
 10 'APRIL' 2005 /
 
GRID        =========================================================

NOGGF

EQUALS
 'DX'     400  /
 'DY'     1000  /
 'PERMX'  500  /
 'PERMY'  500  /
 'PERMZ'  50   /
 'DZ'     50   /
 'PORO'   0.3  /
 'TOPS'   5200   1 20 1 1 1 1 /  -- 1st layer 
 /
 
-- request init and grid file, necessary for post processing of the simulation
-- with floviz
INIT
GRIDFILE
 2 /


RPTGRID
  0 /
 
PROPS       ==========================================================

                                                
PVDO                                       
-- Pref  B  Comp   Visc  Viscobility       
--  1     1  1e-6    1      0         /   
--    P        BW          VISC		   
--    PSI     RB/Mscf       CP		
--	     rb/Mscf   
 	 
   800      1.026       3.00               
  8000      1.004       3.00               
  9014.7    0.9017	3.00            
  
/                                          

PVTW                                           
--   P        	BO       	VISC     
--   PSI      	RB/STB    	 CP      
  	5000	1.027	1e-9	0.3    1e-9 / 
  	
SWOF                                                        
--SW       KRW      KROW    PCOW                                      
  0.200    0.0000    1.0000      0                                    
  0.250    0.0069    0.8403      0                                    
  0.300    0.0278    0.6944      0                                    
  0.350    0.0625    0.5625      0                                    
  0.400    0.1111    0.4444      0                                    
  0.450    0.1736    0.3403      0                                    
  0.500    0.2500    0.2500      0                                    
  0.550    0.3403    0.1736      0                                    
  0.600    0.4444    0.1111      0                                    
  0.650    0.5625    0.0625      0                                    
  0.700    0.6944    0.0278      0                                    
  0.750    0.8403    0.0069      0                                    
  0.800    1.0000    0.0000      0                                    
  1.000    1.0000    0.0000      0                                    
/                                   


ROCK
-- Pref  Comp
  14.7     3e-6    /

 
DENSITY
-- OIL  W   GAS
 49.15  64  0.06055  /


SOLUTION      ========================================================

--EQUIL    -- inital fluid potential (equilibrium)
-- datum  datum   OWC    OWC    GOC    GOC    RSVD   RVVD   SOLN
-- depth   prs   DEPTH   PCOW  DEPTH   PCOG  TABLE  TABLE   METH
--   5200.   5400.  6500.   0.   237.    0.0      1      0       0  /

PRESSURE
20*5408.4333948804297
20*5425.3014654869785
/
--
SWAT
40*0.999999999999 /
--


RPTRST    -- request restart file                   
'BASIC=2' PRESSURE PSAT                           
/                                            

SUMMARY      ===========================================================

WBHP
'PROD' /

WGPR     
 'PROD' /
         
WOPR     
 'PROD' /
 
WWPR     
 'PROD' /
         
SPR
 'PROD' /
 /

SOHF
 'PROD' /
 /

SOFV
 'PROD' /
 /

SGHF
 'PROD' /
 /

SGFV
 'PROD' /
 /


 
EXCEL

SCHEDULE     ===========================================================
 
  
RPTSCHED
  'WELLS=2'  'SUMMARY=2' 
  'CPU=2' 'WELSPECS'  /

 
WELSPECS
 'PROD' 'G' 1 1 5225 'OIL' 0.0  'STD'  'STOP' 'YES' 0 'SEG' 0 /
/

 
COMPDAT 
-- well    perforations    open/  sat  conn       well 
-- name    i   j  k1  k2   shut   tab  fact       diam
--  'PROD'   5   1   1  1    'OPEN'   0  10.93754   0.15  3*  'X' /
--  'PROD'   11  1   1  1    'OPEN'   0  10.93754   0.15  3*  'X' /
--  'PROD'   15  1   1  1    'OPEN'   0  10.93754   0.15  3*  'X' /
    'PROD'   19  1   1  1    'OPEN'   0  10.93754   0.15  3*  'X' /
/

WSEGDFMD
SHI-04 SHI-04 SHI-04 /


WELSEGS

-- Name    Dep 1   Tlen 1  Vol 1
  'PROD'   5225.0   0.0     0.0  'INC' 'HFA'  'HO' /

-- First   Last   Branch   Outlet  Length   Depth    Diam     Ruff   Area  Vol
-- Seg     Seg    Num      Seg     change   Change 
-- Main Stem
    2      2      1        1       400.0    0.000    	0.15   1.E-2  1*   1* /
    3      3      1        2       400.0    0.000    	0.15   1.E-2  1*   1* /
    4      4      1        3       400.0    0.000     	0.15   1.E-2  1*   1* /
    5      5      1        4       400.0    0.000    	0.15   1.E-2  1*   1* /
    6      6      1        5       400.0    0.000    	0.15   1.E-2  1*   1* /
    7      7      1        6       400.0    0.000    	0.15   1.E-2  1*   1* /    
    8      8      1        7       1.0      0.000    	0.03   1.E-2  1*   1* /    
    9      9      1        8       400.0    0.000     	0.15   1.E-2  1*   1* /    
    10     10     1        9       400.0    0.000    	0.15   1.E-2  1*   1* /    
    11     11     1        10      400.0    0.000    	0.15   1.E-2  1*   1* /    
    12     12     1        11      400.0    0.000    	0.15   1.E-2  1*   1* /    
    13     13     1        12      400.0    0.000    	0.15   1.E-2  1*   1* /    
    14     14     1        13      400.0    0.000     	0.15   1.E-2  1*   1* /    
    15     15     1        14      400.0    0.000    	0.15   1.E-2  1*   1* /    
  / 

COMPSEGS
-- Name
  'PROD'            /
-- I   J   	K    	Brn   Start   End    
--              	No   	Length  Length  
19  	1  	1  	1  	5001    5401	  /  
/

WCONPROD
  'PROD'  'OPEN'  'BHP' 5*  4700.00  /
/

                                       
WSEGVALV                               
'PROD'	8	0.632	0.070685835 /  
/

RPTRST    -- request restart file                    
'BASIC=2' PRESSURE  PSAT            
/                                                    
                                                     
TUNING
  0.01  0.01  0.01  0.01  1.0   /
 /
 4*  16 /

 
TSTEP
20*0.01 /

END

